Version 4
SHEET 1 1976 680
WIRE 784 -240 688 -240
WIRE 1424 -240 864 -240
WIRE 1808 -240 1424 -240
WIRE 1424 -192 1424 -240
WIRE 1808 -192 1808 -240
WIRE 688 -144 688 -240
WIRE 784 -144 688 -144
WIRE 1216 -128 976 -128
WIRE 688 -112 688 -144
WIRE 304 -96 256 -96
WIRE 464 -96 384 -96
WIRE 512 -96 464 -96
WIRE 608 -96 512 -96
WIRE 1216 -80 1216 -128
WIRE 256 -48 256 -96
WIRE 512 -48 512 -96
WIRE 608 -48 608 -96
WIRE 784 -32 784 -144
WIRE 1120 -32 784 -32
WIRE 1200 -32 1120 -32
WIRE 1344 -32 1296 -32
WIRE 1424 -32 1424 -128
WIRE 1424 -32 1344 -32
WIRE 1808 -32 1808 -112
WIRE 1808 -32 1424 -32
WIRE 80 48 -16 48
WIRE 224 48 160 48
WIRE 464 48 464 -96
WIRE 464 48 416 48
WIRE -16 64 -16 48
WIRE 608 64 608 16
WIRE 640 64 608 64
WIRE 1120 64 1120 -32
WIRE 1216 64 1120 64
WIRE 1344 64 1344 -32
WIRE 1344 64 1280 64
WIRE 576 112 416 112
WIRE 672 112 576 112
WIRE 976 112 976 -128
WIRE 976 112 752 112
WIRE 224 144 176 144
WIRE 576 144 576 112
WIRE -16 208 -16 144
WIRE 176 224 176 144
WIRE 512 240 512 16
WIRE 576 240 576 224
WIRE 576 240 512 240
WIRE 640 240 640 64
WIRE 640 240 576 240
WIRE 576 256 576 240
FLAG 576 256 0
FLAG -16 208 0
FLAG 176 224 0
FLAG 256 -48 0
FLAG 688 -112 0
SYMBOL Optos\\4N25 320 112 R0
SYMATTR InstName U1
SYMBOL voltage -16 48 R0
WINDOW 0 -93 12 Left 2
WINDOW 3 -416 58 Left 2
WINDOW 123 0 0 Left 0
WINDOW 39 0 0 Left 0
SYMATTR InstName V1
SYMATTR Value PULSE(0 5 0 0 0 0.0004 0.001)
SYMBOL voltage 400 -96 R90
WINDOW 0 -32 56 VBottom 2
WINDOW 3 32 56 VTop 2
WINDOW 123 0 0 Left 0
WINDOW 39 0 0 Left 0
SYMATTR InstName V2
SYMATTR Value 12
SYMBOL res 656 128 R270
WINDOW 0 32 56 VTop 2
WINDOW 3 0 56 VBottom 2
SYMATTR InstName R1
SYMATTR Value 10
SYMBOL res 560 128 R0
SYMATTR InstName R2
SYMATTR Value 10k
SYMBOL res 64 64 R270
WINDOW 0 32 56 VTop 2
WINDOW 3 0 56 VBottom 2
SYMATTR InstName R3
SYMATTR Value 500
SYMBOL nmos 1296 -80 R90
SYMATTR InstName M1
SYMBOL voltage 880 -240 R90
WINDOW 0 -32 56 VBottom 2
WINDOW 3 32 56 VTop 2
WINDOW 123 0 0 Left 0
WINDOW 39 0 0 Left 0
SYMATTR InstName V3
SYMATTR Value 12
SYMBOL diode 1440 -128 R180
WINDOW 0 24 64 Left 2
WINDOW 3 24 0 Left 2
SYMATTR InstName D1
SYMBOL res 1792 -208 R0
SYMATTR InstName R4
SYMATTR Value 10
SYMBOL diode 1216 80 R270
WINDOW 0 32 32 VTop 2
WINDOW 3 0 32 VBottom 2
SYMATTR InstName D2
SYMBOL cap 496 -48 R0
SYMATTR InstName C1
SYMATTR Value 100µ
SYMBOL cap 592 -48 R0
SYMATTR InstName C2
SYMATTR Value 100n
TEXT -432 296 Left 2 !.tran 0.5
